*SPEF "ieee 1481-1999"
*DESIGN "counter"
*DATE "15:17:22 Wednesday March 18, 2026"
*VENDOR "The OpenROAD Project"
*PROGRAM "OpenROAD"
*VERSION "26Q1-2015-gcc5b34f08c"
*DESIGN_FLOW "NAME_SCOPE LOCAL" "PIN_CAP NONE"
*DIVIDER /
*DELIMITER :
*BUS_DELIMITER []
*T_UNIT 1 NS
*C_UNIT 1 PF
*R_UNIT 1 OHM
*L_UNIT 1 HENRY

*NAME_MAP
*1 _000_
*2 _001_
*3 _002_
*4 _003_
*5 _004_
*6 _005_
*7 _006_
*8 _007_
*9 _008_
*10 _009_
*11 _010_
*12 _011_
*13 _012_
*14 _013_
*15 _014_
*16 _015_
*17 _016_
*18 _017_
*19 _018_
*20 _019_
*21 _020_
*22 _021_
*23 _022_
*24 _023_
*25 _024_
*26 _025_
*27 _026_
*28 _027_
*29 _028_
*30 _029_
*31 _030_
*32 _031_
*33 _032_
*34 _033_
*35 _034_
*36 _035_
*37 _036_
*38 _037_
*39 _038_
*40 _039_
*41 _040_
*42 _041_
*43 _042_
*44 _043_
*45 _044_
*46 _045_
*47 _046_
*48 _047_
*49 _048_
*50 _049_
*51 _050_
*52 _051_
*53 _052_
*54 _053_
*55 _054_
*56 _055_
*57 _056_
*58 _057_
*59 _058_
*60 _059_
*61 _060_
*62 _061_
*63 _062_
*64 _063_
*65 _064_
*66 _065_
*67 _066_
*68 _067_
*69 _068_
*70 _069_
*71 _070_
*72 _071_
*73 _072_
*74 _073_
*75 _074_
*76 _075_
*77 _076_
*78 _077_
*79 _078_
*80 _079_
*81 _080_
*82 _081_
*83 _082_
*84 _083_
*85 _084_
*86 _085_
*87 clk
*88 count[0]
*89 count[10]
*90 count[11]
*91 count[12]
*92 count[13]
*93 count[14]
*94 count[15]
*95 count[1]
*96 count[2]
*97 count[3]
*98 count[4]
*99 count[5]
*100 count[6]
*101 count[7]
*102 count[8]
*103 count[9]
*104 data_in[0]
*105 data_in[10]
*106 data_in[11]
*107 data_in[12]
*108 data_in[13]
*109 data_in[14]
*110 data_in[15]
*111 data_in[1]
*112 data_in[2]
*113 data_in[3]
*114 data_in[4]
*115 data_in[5]
*116 data_in[6]
*117 data_in[7]
*118 data_in[8]
*119 data_in[9]
*120 en
*121 load
*122 overflow
*123 rst_n
*126 clknet_0_clk
*127 clknet_1_0__leaf_clk
*128 clknet_1_1__leaf_clk
*129 _086_
*130 _087_
*131 _088_
*132 _089_
*133 _090_
*134 _091_
*135 _092_
*136 _093_
*137 _094_
*138 _095_
*139 _096_
*140 _097_
*141 _098_
*142 _099_
*143 _100_
*144 _101_
*145 _102_
*146 _103_
*147 _104_
*148 _105_
*149 _106_
*150 _107_
*151 _108_
*152 _109_
*153 _110_
*154 _111_
*155 _112_
*156 _113_
*157 _114_
*158 _115_
*159 _116_
*160 _117_
*161 _118_
*162 _119_
*163 _120_
*164 _121_
*165 _122_
*166 _123_
*167 _124_
*168 _125_
*169 _126_
*170 _127_
*171 _128_
*172 _129_
*173 _130_
*174 _131_
*175 _132_
*176 _133_
*177 _134_
*178 _135_
*179 _136_
*180 _137_
*181 _138_
*182 _139_
*183 _140_
*184 _141_
*185 _142_
*186 _143_
*187 _144_
*188 _145_
*189 _146_
*190 _147_
*191 _148_
*192 _149_
*193 _150_
*194 _151_
*195 _152_
*196 _153_
*197 _154_
*198 _155_
*199 _156_
*200 _157_
*201 _158_
*202 _159_
*203 _160_
*204 _161_
*205 _162_
*206 _163_
*207 _164_
*208 _165_
*209 _166_
*210 _167_
*211 _168_
*212 _169_
*213 _170_
*214 _171_
*215 _172_
*216 PHY_EDGE_ROW_0_Right_0
*217 PHY_EDGE_ROW_1_Right_1
*218 PHY_EDGE_ROW_2_Right_2
*219 PHY_EDGE_ROW_3_Right_3
*220 PHY_EDGE_ROW_4_Right_4
*221 PHY_EDGE_ROW_5_Right_5
*222 PHY_EDGE_ROW_6_Right_6
*223 PHY_EDGE_ROW_7_Right_7
*224 PHY_EDGE_ROW_8_Right_8
*225 PHY_EDGE_ROW_9_Right_9
*226 PHY_EDGE_ROW_10_Right_10
*227 PHY_EDGE_ROW_11_Right_11
*228 PHY_EDGE_ROW_12_Right_12
*229 PHY_EDGE_ROW_13_Right_13
*230 PHY_EDGE_ROW_14_Right_14
*231 PHY_EDGE_ROW_15_Right_15
*232 PHY_EDGE_ROW_16_Right_16
*233 PHY_EDGE_ROW_17_Right_17
*234 PHY_EDGE_ROW_18_Right_18
*235 PHY_EDGE_ROW_19_Right_19
*236 PHY_EDGE_ROW_20_Right_20
*237 PHY_EDGE_ROW_21_Right_21
*238 PHY_EDGE_ROW_22_Right_22
*239 PHY_EDGE_ROW_23_Right_23
*240 PHY_EDGE_ROW_24_Right_24
*241 PHY_EDGE_ROW_25_Right_25
*242 PHY_EDGE_ROW_26_Right_26
*243 PHY_EDGE_ROW_27_Right_27
*244 PHY_EDGE_ROW_28_Right_28
*245 PHY_EDGE_ROW_29_Right_29
*246 PHY_EDGE_ROW_30_Right_30
*247 PHY_EDGE_ROW_31_Right_31
*248 PHY_EDGE_ROW_32_Right_32
*249 PHY_EDGE_ROW_33_Right_33
*250 PHY_EDGE_ROW_34_Right_34
*251 PHY_EDGE_ROW_35_Right_35
*252 PHY_EDGE_ROW_36_Right_36
*253 PHY_EDGE_ROW_37_Right_37
*254 PHY_EDGE_ROW_38_Right_38
*255 PHY_EDGE_ROW_39_Right_39
*256 PHY_EDGE_ROW_40_Right_40
*257 PHY_EDGE_ROW_41_Right_41
*258 PHY_EDGE_ROW_42_Right_42
*259 PHY_EDGE_ROW_43_Right_43
*260 PHY_EDGE_ROW_44_Right_44
*261 PHY_EDGE_ROW_45_Right_45
*262 PHY_EDGE_ROW_46_Right_46
*263 PHY_EDGE_ROW_47_Right_47
*264 PHY_EDGE_ROW_48_Right_48
*265 PHY_EDGE_ROW_49_Right_49
*266 PHY_EDGE_ROW_50_Right_50
*267 PHY_EDGE_ROW_51_Right_51
*268 PHY_EDGE_ROW_52_Right_52
*269 PHY_EDGE_ROW_53_Right_53
*270 PHY_EDGE_ROW_54_Right_54
*271 PHY_EDGE_ROW_55_Right_55
*272 PHY_EDGE_ROW_56_Right_56
*273 PHY_EDGE_ROW_57_Right_57
*274 PHY_EDGE_ROW_58_Right_58
*275 PHY_EDGE_ROW_59_Right_59
*276 PHY_EDGE_ROW_60_Right_60
*277 PHY_EDGE_ROW_61_Right_61
*278 PHY_EDGE_ROW_62_Right_62
*279 PHY_EDGE_ROW_0_Left_63
*280 PHY_EDGE_ROW_1_Left_64
*281 PHY_EDGE_ROW_2_Left_65
*282 PHY_EDGE_ROW_3_Left_66
*283 PHY_EDGE_ROW_4_Left_67
*284 PHY_EDGE_ROW_5_Left_68
*285 PHY_EDGE_ROW_6_Left_69
*286 PHY_EDGE_ROW_7_Left_70
*287 PHY_EDGE_ROW_8_Left_71
*288 PHY_EDGE_ROW_9_Left_72
*289 PHY_EDGE_ROW_10_Left_73
*290 PHY_EDGE_ROW_11_Left_74
*291 PHY_EDGE_ROW_12_Left_75
*292 PHY_EDGE_ROW_13_Left_76
*293 PHY_EDGE_ROW_14_Left_77
*294 PHY_EDGE_ROW_15_Left_78
*295 PHY_EDGE_ROW_16_Left_79
*296 PHY_EDGE_ROW_17_Left_80
*297 PHY_EDGE_ROW_18_Left_81
*298 PHY_EDGE_ROW_19_Left_82
*299 PHY_EDGE_ROW_20_Left_83
*300 PHY_EDGE_ROW_21_Left_84
*301 PHY_EDGE_ROW_22_Left_85
*302 PHY_EDGE_ROW_23_Left_86
*303 PHY_EDGE_ROW_24_Left_87
*304 PHY_EDGE_ROW_25_Left_88
*305 PHY_EDGE_ROW_26_Left_89
*306 PHY_EDGE_ROW_27_Left_90
*307 PHY_EDGE_ROW_28_Left_91
*308 PHY_EDGE_ROW_29_Left_92
*309 PHY_EDGE_ROW_30_Left_93
*310 PHY_EDGE_ROW_31_Left_94
*311 PHY_EDGE_ROW_32_Left_95
*312 PHY_EDGE_ROW_33_Left_96
*313 PHY_EDGE_ROW_34_Left_97
*314 PHY_EDGE_ROW_35_Left_98
*315 PHY_EDGE_ROW_36_Left_99
*316 PHY_EDGE_ROW_37_Left_100
*317 PHY_EDGE_ROW_38_Left_101
*318 PHY_EDGE_ROW_39_Left_102
*319 PHY_EDGE_ROW_40_Left_103
*320 PHY_EDGE_ROW_41_Left_104
*321 PHY_EDGE_ROW_42_Left_105
*322 PHY_EDGE_ROW_43_Left_106
*323 PHY_EDGE_ROW_44_Left_107
*324 PHY_EDGE_ROW_45_Left_108
*325 PHY_EDGE_ROW_46_Left_109
*326 PHY_EDGE_ROW_47_Left_110
*327 PHY_EDGE_ROW_48_Left_111
*328 PHY_EDGE_ROW_49_Left_112
*329 PHY_EDGE_ROW_50_Left_113
*330 PHY_EDGE_ROW_51_Left_114
*331 PHY_EDGE_ROW_52_Left_115
*332 PHY_EDGE_ROW_53_Left_116
*333 PHY_EDGE_ROW_54_Left_117
*334 PHY_EDGE_ROW_55_Left_118
*335 PHY_EDGE_ROW_56_Left_119
*336 PHY_EDGE_ROW_57_Left_120
*337 PHY_EDGE_ROW_58_Left_121
*338 PHY_EDGE_ROW_59_Left_122
*339 PHY_EDGE_ROW_60_Left_123
*340 PHY_EDGE_ROW_61_Left_124
*341 PHY_EDGE_ROW_62_Left_125
*342 clkbuf_0_clk
*343 clkbuf_1_0__f_clk
*344 clkbuf_1_1__f_clk
*345 clkload0
*346 FILLER_0_1
*347 FILLER_0_33
*348 FILLER_0_65
*349 FILLER_0_97
*350 FILLER_0_129
*351 FILLER_0_161
*352 FILLER_0_193
*353 FILLER_0_225
*354 FILLER_0_257
*355 FILLER_0_289
*356 FILLER_0_321
*357 FILLER_0_353
*358 FILLER_0_385
*359 FILLER_0_417
*360 FILLER_0_449
*361 FILLER_0_465
*362 FILLER_0_469
*363 FILLER_0_471
*364 FILLER_1_1
*365 FILLER_1_33
*366 FILLER_1_65
*367 FILLER_1_97
*368 FILLER_1_129
*369 FILLER_1_161
*370 FILLER_1_193
*371 FILLER_1_225
*372 FILLER_1_257
*373 FILLER_1_289
*374 FILLER_1_321
*375 FILLER_1_353
*376 FILLER_1_385
*377 FILLER_1_417
*378 FILLER_1_449
*379 FILLER_1_465
*380 FILLER_1_469
*381 FILLER_1_471
*382 FILLER_2_1
*383 FILLER_2_33
*384 FILLER_2_65
*385 FILLER_2_97
*386 FILLER_2_129
*387 FILLER_2_161
*388 FILLER_2_193
*389 FILLER_2_225
*390 FILLER_2_257
*391 FILLER_2_289
*392 FILLER_2_321
*393 FILLER_2_353
*394 FILLER_2_385
*395 FILLER_2_417
*396 FILLER_2_449
*397 FILLER_2_465
*398 FILLER_2_469
*399 FILLER_2_471
*400 FILLER_3_1
*401 FILLER_3_33
*402 FILLER_3_65
*403 FILLER_3_97
*404 FILLER_3_129
*405 FILLER_3_161
*406 FILLER_3_193
*407 FILLER_3_225
*408 FILLER_3_257
*409 FILLER_3_289
*410 FILLER_3_321
*411 FILLER_3_353
*412 FILLER_3_385
*413 FILLER_3_417
*414 FILLER_3_449
*415 FILLER_3_465
*416 FILLER_3_469
*417 FILLER_3_471
*418 FILLER_4_1
*419 FILLER_4_33
*420 FILLER_4_65
*421 FILLER_4_97
*422 FILLER_4_129
*423 FILLER_4_161
*424 FILLER_4_193
*425 FILLER_4_225
*426 FILLER_4_257
*427 FILLER_4_289
*428 FILLER_4_321
*429 FILLER_4_353
*430 FILLER_4_385
*431 FILLER_4_417
*432 FILLER_4_449
*433 FILLER_4_465
*434 FILLER_4_469
*435 FILLER_4_471
*436 FILLER_5_1
*437 FILLER_5_33
*438 FILLER_5_65
*439 FILLER_5_97
*440 FILLER_5_129
*441 FILLER_5_161
*442 FILLER_5_193
*443 FILLER_5_225
*444 FILLER_5_257
*445 FILLER_5_289
*446 FILLER_5_321
*447 FILLER_5_353
*448 FILLER_5_385
*449 FILLER_5_417
*450 FILLER_5_449
*451 FILLER_5_465
*452 FILLER_5_469
*453 FILLER_5_471
*454 FILLER_6_1
*455 FILLER_6_33
*456 FILLER_6_65
*457 FILLER_6_97
*458 FILLER_6_129
*459 FILLER_6_161
*460 FILLER_6_193
*461 FILLER_6_225
*462 FILLER_6_257
*463 FILLER_6_289
*464 FILLER_6_321
*465 FILLER_6_353
*466 FILLER_6_385
*467 FILLER_6_417
*468 FILLER_6_449
*469 FILLER_6_465
*470 FILLER_6_469
*471 FILLER_6_471
*472 FILLER_7_1
*473 FILLER_7_33
*474 FILLER_7_65
*475 FILLER_7_97
*476 FILLER_7_129
*477 FILLER_7_161
*478 FILLER_7_193
*479 FILLER_7_225
*480 FILLER_7_257
*481 FILLER_7_289
*482 FILLER_7_321
*483 FILLER_7_353
*484 FILLER_7_385
*485 FILLER_7_417
*486 FILLER_7_449
*487 FILLER_7_465
*488 FILLER_7_469
*489 FILLER_7_471
*490 FILLER_8_1
*491 FILLER_8_33
*492 FILLER_8_65
*493 FILLER_8_97
*494 FILLER_8_129
*495 FILLER_8_161
*496 FILLER_8_193
*497 FILLER_8_225
*498 FILLER_8_257
*499 FILLER_8_289
*500 FILLER_8_321
*501 FILLER_8_353
*502 FILLER_8_385
*503 FILLER_8_417
*504 FILLER_8_449
*505 FILLER_8_465
*506 FILLER_8_469
*507 FILLER_8_471
*508 FILLER_9_1
*509 FILLER_9_33
*510 FILLER_9_65
*511 FILLER_9_97
*512 FILLER_9_129
*513 FILLER_9_161
*514 FILLER_9_193
*515 FILLER_9_225
*516 FILLER_9_257
*517 FILLER_9_289
*518 FILLER_9_321
*519 FILLER_9_353
*520 FILLER_9_385
*521 FILLER_9_417
*522 FILLER_9_449
*523 FILLER_9_465
*524 FILLER_9_469
*525 FILLER_9_471
*526 FILLER_10_1
*527 FILLER_10_33
*528 FILLER_10_65
*529 FILLER_10_97
*530 FILLER_10_129
*531 FILLER_10_161
*532 FILLER_10_193
*533 FILLER_10_225
*534 FILLER_10_257
*535 FILLER_10_289
*536 FILLER_10_321
*537 FILLER_10_353
*538 FILLER_10_385
*539 FILLER_10_417
*540 FILLER_10_449
*541 FILLER_10_465
*542 FILLER_10_469
*543 FILLER_10_471
*544 FILLER_11_1
*545 FILLER_11_33
*546 FILLER_11_65
*547 FILLER_11_97
*548 FILLER_11_129
*549 FILLER_11_161
*550 FILLER_11_193
*551 FILLER_11_225
*552 FILLER_11_257
*553 FILLER_11_289
*554 FILLER_11_321
*555 FILLER_11_353
*556 FILLER_11_385
*557 FILLER_11_417
*558 FILLER_11_449
*559 FILLER_11_465
*560 FILLER_11_469
*561 FILLER_11_471
*562 FILLER_12_1
*563 FILLER_12_33
*564 FILLER_12_65
*565 FILLER_12_97
*566 FILLER_12_129
*567 FILLER_12_161
*568 FILLER_12_193
*569 FILLER_12_225
*570 FILLER_12_257
*571 FILLER_12_289
*572 FILLER_12_321
*573 FILLER_12_353
*574 FILLER_12_385
*575 FILLER_12_417
*576 FILLER_12_449
*577 FILLER_12_465
*578 FILLER_12_469
*579 FILLER_12_471
*580 FILLER_13_1
*581 FILLER_13_33
*582 FILLER_13_65
*583 FILLER_13_97
*584 FILLER_13_129
*585 FILLER_13_161
*586 FILLER_13_193
*587 FILLER_13_225
*588 FILLER_13_257
*589 FILLER_13_289
*590 FILLER_13_321
*591 FILLER_13_353
*592 FILLER_13_385
*593 FILLER_13_417
*594 FILLER_13_449
*595 FILLER_13_465
*596 FILLER_13_469
*597 FILLER_13_471
*598 FILLER_14_1
*599 FILLER_14_33
*600 FILLER_14_65
*601 FILLER_14_97
*602 FILLER_14_129
*603 FILLER_14_161
*604 FILLER_14_193
*605 FILLER_14_225
*606 FILLER_14_257
*607 FILLER_14_289
*608 FILLER_14_321
*609 FILLER_14_353
*610 FILLER_14_385
*611 FILLER_14_417
*612 FILLER_14_449
*613 FILLER_14_465
*614 FILLER_14_469
*615 FILLER_14_471
*616 FILLER_15_1
*617 FILLER_15_33
*618 FILLER_15_65
*619 FILLER_15_97
*620 FILLER_15_129
*621 FILLER_15_161
*622 FILLER_15_193
*623 FILLER_15_225
*624 FILLER_15_257
*625 FILLER_15_289
*626 FILLER_15_321
*627 FILLER_15_353
*628 FILLER_15_385
*629 FILLER_15_417
*630 FILLER_15_449
*631 FILLER_15_465
*632 FILLER_15_469
*633 FILLER_15_471
*634 FILLER_16_1
*635 FILLER_16_33
*636 FILLER_16_65
*637 FILLER_16_97
*638 FILLER_16_129
*639 FILLER_16_161
*640 FILLER_16_193
*641 FILLER_16_225
*642 FILLER_16_257
*643 FILLER_16_289
*644 FILLER_16_321
*645 FILLER_16_353
*646 FILLER_16_385
*647 FILLER_16_417
*648 FILLER_16_449
*649 FILLER_16_465
*650 FILLER_16_469
*651 FILLER_16_471
*652 FILLER_17_1
*653 FILLER_17_33
*654 FILLER_17_65
*655 FILLER_17_97
*656 FILLER_17_129
*657 FILLER_17_161
*658 FILLER_17_193
*659 FILLER_17_225
*660 FILLER_17_257
*661 FILLER_17_289
*662 FILLER_17_321
*663 FILLER_17_353
*664 FILLER_17_385
*665 FILLER_17_417
*666 FILLER_17_449
*667 FILLER_17_465
*668 FILLER_17_469
*669 FILLER_17_471
*670 FILLER_18_1
*671 FILLER_18_33
*672 FILLER_18_65
*673 FILLER_18_97
*674 FILLER_18_129
*675 FILLER_18_161
*676 FILLER_18_193
*677 FILLER_18_225
*678 FILLER_18_257
*679 FILLER_18_289
*680 FILLER_18_321
*681 FILLER_18_353
*682 FILLER_18_385
*683 FILLER_18_417
*684 FILLER_18_449
*685 FILLER_18_465
*686 FILLER_18_469
*687 FILLER_18_471
*688 FILLER_19_1
*689 FILLER_19_33
*690 FILLER_19_65
*691 FILLER_19_97
*692 FILLER_19_129
*693 FILLER_19_161
*694 FILLER_19_193
*695 FILLER_19_225
*696 FILLER_19_257
*697 FILLER_19_289
*698 FILLER_19_321
*699 FILLER_19_353
*700 FILLER_19_385
*701 FILLER_19_417
*702 FILLER_19_449
*703 FILLER_19_465
*704 FILLER_19_469
*705 FILLER_19_471
*706 FILLER_20_1
*707 FILLER_20_33
*708 FILLER_20_65
*709 FILLER_20_97
*710 FILLER_20_129
*711 FILLER_20_161
*712 FILLER_20_193
*713 FILLER_20_225
*714 FILLER_20_257
*715 FILLER_20_289
*716 FILLER_20_321
*717 FILLER_20_353
*718 FILLER_20_385
*719 FILLER_20_417
*720 FILLER_20_449
*721 FILLER_20_465
*722 FILLER_20_469
*723 FILLER_20_471
*724 FILLER_21_1
*725 FILLER_21_33
*726 FILLER_21_65
*727 FILLER_21_97
*728 FILLER_21_129
*729 FILLER_21_161
*730 FILLER_21_193
*731 FILLER_21_225
*732 FILLER_21_257
*733 FILLER_21_289
*734 FILLER_21_321
*735 FILLER_21_353
*736 FILLER_21_385
*737 FILLER_21_417
*738 FILLER_21_449
*739 FILLER_21_465
*740 FILLER_21_469
*741 FILLER_21_471
*742 FILLER_22_1
*743 FILLER_22_33
*744 FILLER_22_65
*745 FILLER_22_97
*746 FILLER_22_129
*747 FILLER_22_161
*748 FILLER_22_193
*749 FILLER_22_225
*750 FILLER_22_257
*751 FILLER_22_289
*752 FILLER_22_321
*753 FILLER_22_353
*754 FILLER_22_385
*755 FILLER_22_417
*756 FILLER_22_449
*757 FILLER_22_465
*758 FILLER_22_469
*759 FILLER_22_471
*760 FILLER_23_1
*761 FILLER_23_33
*762 FILLER_23_65
*763 FILLER_23_97
*764 FILLER_23_129
*765 FILLER_23_161
*766 FILLER_23_193
*767 FILLER_23_225
*768 FILLER_23_257
*769 FILLER_23_289
*770 FILLER_23_321
*771 FILLER_23_353
*772 FILLER_23_385
*773 FILLER_23_417
*774 FILLER_23_449
*775 FILLER_23_465
*776 FILLER_23_469
*777 FILLER_23_471
*778 FILLER_24_1
*779 FILLER_24_33
*780 FILLER_24_65
*781 FILLER_24_97
*782 FILLER_24_129
*783 FILLER_24_161
*784 FILLER_24_193
*785 FILLER_24_225
*786 FILLER_24_257
*787 FILLER_24_289
*788 FILLER_24_321
*789 FILLER_24_353
*790 FILLER_24_385
*791 FILLER_24_417
*792 FILLER_24_449
*793 FILLER_24_465
*794 FILLER_24_469
*795 FILLER_24_471
*796 FILLER_25_1
*797 FILLER_25_33
*798 FILLER_25_65
*799 FILLER_25_97
*800 FILLER_25_129
*801 FILLER_25_161
*802 FILLER_25_193
*803 FILLER_25_225
*804 FILLER_25_257
*805 FILLER_25_289
*806 FILLER_25_321
*807 FILLER_25_353
*808 FILLER_25_385
*809 FILLER_25_417
*810 FILLER_25_449
*811 FILLER_25_465
*812 FILLER_25_469
*813 FILLER_25_471
*814 FILLER_26_1
*815 FILLER_26_33
*816 FILLER_26_65
*817 FILLER_26_97
*818 FILLER_26_129
*819 FILLER_26_161
*820 FILLER_26_193
*821 FILLER_26_225
*822 FILLER_26_257
*823 FILLER_26_289
*824 FILLER_26_321
*825 FILLER_26_353
*826 FILLER_26_385
*827 FILLER_26_417
*828 FILLER_26_449
*829 FILLER_26_465
*830 FILLER_26_469
*831 FILLER_26_471
*832 FILLER_27_1
*833 FILLER_27_33
*834 FILLER_27_65
*835 FILLER_27_97
*836 FILLER_27_129
*837 FILLER_27_161
*838 FILLER_27_193
*839 FILLER_27_225
*840 FILLER_27_257
*841 FILLER_27_289
*842 FILLER_27_321
*843 FILLER_27_353
*844 FILLER_27_385
*845 FILLER_27_417
*846 FILLER_27_449
*847 FILLER_27_465
*848 FILLER_27_469
*849 FILLER_27_471
*850 FILLER_28_1
*851 FILLER_28_33
*852 FILLER_28_65
*853 FILLER_28_97
*854 FILLER_28_129
*855 FILLER_28_161
*856 FILLER_28_193
*857 FILLER_28_225
*858 FILLER_28_257
*859 FILLER_28_289
*860 FILLER_28_321
*861 FILLER_28_353
*862 FILLER_28_385
*863 FILLER_28_417
*864 FILLER_28_449
*865 FILLER_28_465
*866 FILLER_28_469
*867 FILLER_28_471
*868 FILLER_29_1
*869 FILLER_29_33
*870 FILLER_29_65
*871 FILLER_29_97
*872 FILLER_29_129
*873 FILLER_29_161
*874 FILLER_29_193
*875 FILLER_29_225
*876 FILLER_29_257
*877 FILLER_29_289
*878 FILLER_29_321
*879 FILLER_29_353
*880 FILLER_29_385
*881 FILLER_29_417
*882 FILLER_29_449
*883 FILLER_29_465
*884 FILLER_29_469
*885 FILLER_29_471
*886 FILLER_30_1
*887 FILLER_30_33
*888 FILLER_30_65
*889 FILLER_30_97
*890 FILLER_30_129
*891 FILLER_30_161
*892 FILLER_30_193
*893 FILLER_30_225
*894 FILLER_30_257
*895 FILLER_30_289
*896 FILLER_30_321
*897 FILLER_30_353
*898 FILLER_30_385
*899 FILLER_30_417
*900 FILLER_30_449
*901 FILLER_30_465
*902 FILLER_30_469
*903 FILLER_30_471
*904 FILLER_31_1
*905 FILLER_31_33
*906 FILLER_31_65
*907 FILLER_31_97
*908 FILLER_31_129
*909 FILLER_31_161
*910 FILLER_31_193
*911 FILLER_31_225
*912 FILLER_31_257
*913 FILLER_31_289
*914 FILLER_31_321
*915 FILLER_31_353
*916 FILLER_31_385
*917 FILLER_31_417
*918 FILLER_31_449
*919 FILLER_31_465
*920 FILLER_31_469
*921 FILLER_31_471
*922 FILLER_32_1
*923 FILLER_32_33
*924 FILLER_32_65
*925 FILLER_32_97
*926 FILLER_32_129
*927 FILLER_32_161
*928 FILLER_32_193
*929 FILLER_32_225
*930 FILLER_32_257
*931 FILLER_32_289
*932 FILLER_32_321
*933 FILLER_32_353
*934 FILLER_32_385
*935 FILLER_32_417
*936 FILLER_32_449
*937 FILLER_32_465
*938 FILLER_32_469
*939 FILLER_32_471
*940 FILLER_33_1
*941 FILLER_33_33
*942 FILLER_33_65
*943 FILLER_33_97
*944 FILLER_33_129
*945 FILLER_33_161
*946 FILLER_33_193
*947 FILLER_33_225
*948 FILLER_33_257
*949 FILLER_33_289
*950 FILLER_33_321
*951 FILLER_33_353
*952 FILLER_33_385
*953 FILLER_33_417
*954 FILLER_33_449
*955 FILLER_33_465
*956 FILLER_33_469
*957 FILLER_33_471
*958 FILLER_34_1
*959 FILLER_34_33
*960 FILLER_34_65
*961 FILLER_34_97
*962 FILLER_34_129
*963 FILLER_34_161
*964 FILLER_34_193
*965 FILLER_34_225
*966 FILLER_34_257
*967 FILLER_34_289
*968 FILLER_34_321
*969 FILLER_34_353
*970 FILLER_34_385
*971 FILLER_34_417
*972 FILLER_34_449
*973 FILLER_34_465
*974 FILLER_34_469
*975 FILLER_34_471
*976 FILLER_35_1
*977 FILLER_35_33
*978 FILLER_35_65
*979 FILLER_35_97
*980 FILLER_35_129
*981 FILLER_35_161
*982 FILLER_35_193
*983 FILLER_35_225
*984 FILLER_35_257
*985 FILLER_35_289
*986 FILLER_35_321
*987 FILLER_35_353
*988 FILLER_35_385
*989 FILLER_35_417
*990 FILLER_35_449
*991 FILLER_35_465
*992 FILLER_35_469
*993 FILLER_35_471
*994 FILLER_36_1
*995 FILLER_36_33
*996 FILLER_36_65
*997 FILLER_36_97
*998 FILLER_36_129
*999 FILLER_36_161
*1000 FILLER_36_193
*1001 FILLER_36_225
*1002 FILLER_36_257
*1003 FILLER_36_289
*1004 FILLER_36_321
*1005 FILLER_36_353
*1006 FILLER_36_385
*1007 FILLER_36_417
*1008 FILLER_36_449
*1009 FILLER_36_465
*1010 FILLER_36_469
*1011 FILLER_36_471
*1012 FILLER_37_1
*1013 FILLER_37_33
*1014 FILLER_37_65
*1015 FILLER_37_97
*1016 FILLER_37_129
*1017 FILLER_37_161
*1018 FILLER_37_193
*1019 FILLER_37_225
*1020 FILLER_37_257
*1021 FILLER_37_289
*1022 FILLER_37_321
*1023 FILLER_37_353
*1024 FILLER_37_385
*1025 FILLER_37_417
*1026 FILLER_37_449
*1027 FILLER_37_465
*1028 FILLER_37_469
*1029 FILLER_37_471
*1030 FILLER_38_1
*1031 FILLER_38_33
*1032 FILLER_38_65
*1033 FILLER_38_97
*1034 FILLER_38_129
*1035 FILLER_38_161
*1036 FILLER_38_193
*1037 FILLER_38_225
*1038 FILLER_38_257
*1039 FILLER_38_289
*1040 FILLER_38_321
*1041 FILLER_38_353
*1042 FILLER_38_385
*1043 FILLER_38_417
*1044 FILLER_38_449
*1045 FILLER_38_465
*1046 FILLER_38_469
*1047 FILLER_38_471
*1048 FILLER_39_1
*1049 FILLER_39_33
*1050 FILLER_39_65
*1051 FILLER_39_97
*1052 FILLER_39_129
*1053 FILLER_39_161
*1054 FILLER_39_193
*1055 FILLER_39_225
*1056 FILLER_39_257
*1057 FILLER_39_289
*1058 FILLER_39_321
*1059 FILLER_39_353
*1060 FILLER_39_385
*1061 FILLER_39_417
*1062 FILLER_39_449
*1063 FILLER_39_465
*1064 FILLER_39_469
*1065 FILLER_39_471
*1066 FILLER_40_1
*1067 FILLER_40_33
*1068 FILLER_40_65
*1069 FILLER_40_97
*1070 FILLER_40_129
*1071 FILLER_40_161
*1072 FILLER_40_193
*1073 FILLER_40_225
*1074 FILLER_40_257
*1075 FILLER_40_289
*1076 FILLER_40_321
*1077 FILLER_40_353
*1078 FILLER_40_385
*1079 FILLER_40_417
*1080 FILLER_40_449
*1081 FILLER_40_465
*1082 FILLER_40_469
*1083 FILLER_40_471
*1084 FILLER_41_1
*1085 FILLER_41_33
*1086 FILLER_41_65
*1087 FILLER_41_97
*1088 FILLER_41_129
*1089 FILLER_41_161
*1090 FILLER_41_193
*1091 FILLER_41_225
*1092 FILLER_41_257
*1093 FILLER_41_289
*1094 FILLER_41_321
*1095 FILLER_41_353
*1096 FILLER_41_385
*1097 FILLER_41_417
*1098 FILLER_41_449
*1099 FILLER_41_465
*1100 FILLER_41_469
*1101 FILLER_41_471
*1102 FILLER_42_1
*1103 FILLER_42_33
*1104 FILLER_42_65
*1105 FILLER_42_97
*1106 FILLER_42_129
*1107 FILLER_42_161
*1108 FILLER_42_193
*1109 FILLER_42_225
*1110 FILLER_42_257
*1111 FILLER_42_289
*1112 FILLER_42_321
*1113 FILLER_42_353
*1114 FILLER_42_385
*1115 FILLER_42_417
*1116 FILLER_42_449
*1117 FILLER_42_465
*1118 FILLER_42_469
*1119 FILLER_42_471
*1120 FILLER_43_1
*1121 FILLER_43_33
*1122 FILLER_43_65
*1123 FILLER_43_97
*1124 FILLER_43_129
*1125 FILLER_43_161
*1126 FILLER_43_193
*1127 FILLER_43_225
*1128 FILLER_43_257
*1129 FILLER_43_289
*1130 FILLER_43_321
*1131 FILLER_43_353
*1132 FILLER_43_385
*1133 FILLER_43_417
*1134 FILLER_43_449
*1135 FILLER_43_465
*1136 FILLER_43_469
*1137 FILLER_43_471
*1138 FILLER_44_1
*1139 FILLER_44_33
*1140 FILLER_44_65
*1141 FILLER_44_97
*1142 FILLER_44_129
*1143 FILLER_44_161
*1144 FILLER_44_193
*1145 FILLER_44_225
*1146 FILLER_44_257
*1147 FILLER_44_289
*1148 FILLER_44_321
*1149 FILLER_44_353
*1150 FILLER_44_385
*1151 FILLER_44_417
*1152 FILLER_44_449
*1153 FILLER_44_465
*1154 FILLER_44_469
*1155 FILLER_44_471
*1156 FILLER_45_1
*1157 FILLER_45_33
*1158 FILLER_45_65
*1159 FILLER_45_97
*1160 FILLER_45_129
*1161 FILLER_45_161
*1162 FILLER_45_193
*1163 FILLER_45_225
*1164 FILLER_45_257
*1165 FILLER_45_289
*1166 FILLER_45_321
*1167 FILLER_45_353
*1168 FILLER_45_385
*1169 FILLER_45_417
*1170 FILLER_45_449
*1171 FILLER_45_465
*1172 FILLER_45_469
*1173 FILLER_45_471
*1174 FILLER_46_1
*1175 FILLER_46_33
*1176 FILLER_46_65
*1177 FILLER_46_97
*1178 FILLER_46_129
*1179 FILLER_46_161
*1180 FILLER_46_193
*1181 FILLER_46_225
*1182 FILLER_46_257
*1183 FILLER_46_289
*1184 FILLER_46_321
*1185 FILLER_46_353
*1186 FILLER_46_385
*1187 FILLER_46_417
*1188 FILLER_46_449
*1189 FILLER_46_465
*1190 FILLER_46_469
*1191 FILLER_46_471
*1192 FILLER_47_1
*1193 FILLER_47_33
*1194 FILLER_47_65
*1195 FILLER_47_97
*1196 FILLER_47_129
*1197 FILLER_47_161
*1198 FILLER_47_193
*1199 FILLER_47_225
*1200 FILLER_47_257
*1201 FILLER_47_289
*1202 FILLER_47_321
*1203 FILLER_47_353
*1204 FILLER_47_385
*1205 FILLER_47_417
*1206 FILLER_47_449
*1207 FILLER_47_465
*1208 FILLER_47_469
*1209 FILLER_47_471
*1210 FILLER_48_1
*1211 FILLER_48_33
*1212 FILLER_48_65
*1213 FILLER_48_97
*1214 FILLER_48_129
*1215 FILLER_48_161
*1216 FILLER_48_193
*1217 FILLER_48_209
*1218 FILLER_48_217
*1219 FILLER_48_221
*1220 FILLER_48_243
*1221 FILLER_48_275
*1222 FILLER_48_307
*1223 FILLER_48_339
*1224 FILLER_48_371
*1225 FILLER_48_403
*1226 FILLER_48_435
*1227 FILLER_48_467
*1228 FILLER_48_471
*1229 FILLER_49_1
*1230 FILLER_49_33
*1231 FILLER_49_65
*1232 FILLER_49_97
*1233 FILLER_49_129
*1234 FILLER_49_161
*1235 FILLER_49_177
*1236 FILLER_49_185
*1237 FILLER_49_209
*1238 FILLER_49_215
*1239 FILLER_49_223
*1240 FILLER_49_231
*1241 FILLER_49_235
*1242 FILLER_49_256
*1243 FILLER_49_288
*1244 FILLER_49_320
*1245 FILLER_49_352
*1246 FILLER_49_384
*1247 FILLER_49_416
*1248 FILLER_49_448
*1249 FILLER_49_464
*1250 FILLER_50_1
*1251 FILLER_50_33
*1252 FILLER_50_65
*1253 FILLER_50_97
*1254 FILLER_50_129
*1255 FILLER_50_161
*1256 FILLER_50_169
*1257 FILLER_50_173
*1258 FILLER_50_195
*1259 FILLER_50_197
*1260 FILLER_50_204
*1261 FILLER_50_210
*1262 FILLER_50_215
*1263 FILLER_50_227
*1264 FILLER_50_239
*1265 FILLER_50_241
*1266 FILLER_50_244
*1267 FILLER_50_276
*1268 FILLER_50_308
*1269 FILLER_50_340
*1270 FILLER_50_372
*1271 FILLER_50_404
*1272 FILLER_50_436
*1273 FILLER_50_468
*1274 FILLER_51_1
*1275 FILLER_51_33
*1276 FILLER_51_65
*1277 FILLER_51_97
*1278 FILLER_51_129
*1279 FILLER_51_161
*1280 FILLER_51_177
*1281 FILLER_51_185
*1282 FILLER_51_190
*1283 FILLER_51_196
*1284 FILLER_51_203
*1285 FILLER_51_235
*1286 FILLER_51_239
*1287 FILLER_51_244
*1288 FILLER_51_252
*1289 FILLER_51_256
*1290 FILLER_51_263
*1291 FILLER_51_271
*1292 FILLER_51_275
*1293 FILLER_51_277
*1294 FILLER_51_298
*1295 FILLER_51_330
*1296 FILLER_51_362
*1297 FILLER_51_394
*1298 FILLER_51_426
*1299 FILLER_51_458
*1300 FILLER_51_466
*1301 FILLER_51_470
*1302 FILLER_52_1
*1303 FILLER_52_33
*1304 FILLER_52_65
*1305 FILLER_52_97
*1306 FILLER_52_129
*1307 FILLER_52_161
*1308 FILLER_52_165
*1309 FILLER_52_187
*1310 FILLER_52_195
*1311 FILLER_52_203
*1312 FILLER_52_239
*1313 FILLER_52_247
*1314 FILLER_52_253
*1315 FILLER_52_258
*1316 FILLER_52_266
*1317 FILLER_52_268
*1318 FILLER_52_273
*1319 FILLER_52_282
*1320 FILLER_52_290
*1321 FILLER_52_298
*1322 FILLER_52_300
*1323 FILLER_52_321
*1324 FILLER_52_353
*1325 FILLER_52_385
*1326 FILLER_52_417
*1327 FILLER_52_449
*1328 FILLER_52_465
*1329 FILLER_52_469
*1330 FILLER_52_471
*1331 FILLER_53_1
*1332 FILLER_53_33
*1333 FILLER_53_65
*1334 FILLER_53_97
*1335 FILLER_53_129
*1336 FILLER_53_161
*1337 FILLER_53_177
*1338 FILLER_53_181
*1339 FILLER_53_186
*1340 FILLER_53_218
*1341 FILLER_53_226
*1342 FILLER_53_230
*1343 FILLER_53_262
*1344 FILLER_53_266
*1345 FILLER_53_268
*1346 FILLER_53_275
*1347 FILLER_53_283
*1348 FILLER_53_293
*1349 FILLER_53_302
*1350 FILLER_53_324
*1351 FILLER_53_356
*1352 FILLER_53_388
*1353 FILLER_53_420
*1354 FILLER_53_452
*1355 FILLER_53_468
*1356 FILLER_54_1
*1357 FILLER_54_33
*1358 FILLER_54_65
*1359 FILLER_54_97
*1360 FILLER_54_129
*1361 FILLER_54_161
*1362 FILLER_54_193
*1363 FILLER_54_195
*1364 FILLER_54_198
*1365 FILLER_54_207
*1366 FILLER_54_223
*1367 FILLER_54_231
*1368 FILLER_54_242
*1369 FILLER_54_254
*1370 FILLER_54_256
*1371 FILLER_54_262
*1372 FILLER_54_270
*1373 FILLER_54_272
*1374 FILLER_54_277
*1375 FILLER_54_293
*1376 FILLER_54_308
*1377 FILLER_54_316
*1378 FILLER_54_348
*1379 FILLER_54_380
*1380 FILLER_54_412
*1381 FILLER_54_444
*1382 FILLER_54_460
*1383 FILLER_54_468
*1384 FILLER_55_1
*1385 FILLER_55_33
*1386 FILLER_55_65
*1387 FILLER_55_97
*1388 FILLER_55_129
*1389 FILLER_55_161
*1390 FILLER_55_193
*1391 FILLER_55_225
*1392 FILLER_55_241
*1393 FILLER_55_249
*1394 FILLER_55_253
*1395 FILLER_55_255
*1396 FILLER_55_262
*1397 FILLER_55_271
*1398 FILLER_55_303
*1399 FILLER_55_307
*1400 FILLER_55_312
*1401 FILLER_55_344
*1402 FILLER_55_376
*1403 FILLER_55_408
*1404 FILLER_55_440
*1405 FILLER_56_1
*1406 FILLER_56_33
*1407 FILLER_56_65
*1408 FILLER_56_97
*1409 FILLER_56_129
*1410 FILLER_56_161
*1411 FILLER_56_165
*1412 FILLER_56_170
*1413 FILLER_56_177
*1414 FILLER_56_183
*1415 FILLER_56_215
*1416 FILLER_56_247
*1417 FILLER_56_279
*1418 FILLER_56_311
*1419 FILLER_56_343
*1420 FILLER_56_375
*1421 FILLER_56_407
*1422 FILLER_56_439
*1423 FILLER_56_471
*1424 FILLER_57_1
*1425 FILLER_57_33
*1426 FILLER_57_65
*1427 FILLER_57_97
*1428 FILLER_57_129
*1429 FILLER_57_145
*1430 FILLER_57_153
*1431 FILLER_57_157
*1432 FILLER_57_178
*1433 FILLER_57_194
*1434 FILLER_57_203
*1435 FILLER_57_216
*1436 FILLER_57_248
*1437 FILLER_57_256
*1438 FILLER_57_260
*1439 FILLER_57_265
*1440 FILLER_57_297
*1441 FILLER_57_310
*1442 FILLER_57_318
*1443 FILLER_57_323
*1444 FILLER_57_355
*1445 FILLER_57_387
*1446 FILLER_57_419
*1447 FILLER_57_451
*1448 FILLER_57_467
*1449 FILLER_57_471
*1450 FILLER_58_1
*1451 FILLER_58_33
*1452 FILLER_58_65
*1453 FILLER_58_97
*1454 FILLER_58_129
*1455 FILLER_58_161
*1456 FILLER_58_165
*1457 FILLER_58_170
*1458 FILLER_58_176
*1459 FILLER_58_185
*1460 FILLER_58_190
*1461 FILLER_58_198
*1462 FILLER_58_204
*1463 FILLER_58_209
*1464 FILLER_58_213
*1465 FILLER_58_215
*1466 FILLER_58_224
*1467 FILLER_58_228
*1468 FILLER_58_235
*1469 FILLER_58_244
*1470 FILLER_58_248
*1471 FILLER_58_256
*1472 FILLER_58_263
*1473 FILLER_58_270
*1474 FILLER_58_276
*1475 FILLER_58_292
*1476 FILLER_58_300
*1477 FILLER_58_304
*1478 FILLER_58_306
*1479 FILLER_58_327
*1480 FILLER_58_359
*1481 FILLER_58_391
*1482 FILLER_58_423
*1483 FILLER_58_455
*1484 FILLER_58_471
*1485 FILLER_59_1
*1486 FILLER_59_33
*1487 FILLER_59_65
*1488 FILLER_59_97
*1489 FILLER_59_129
*1490 FILLER_59_161
*1491 FILLER_59_169
*1492 FILLER_59_171
*1493 FILLER_59_176
*1494 FILLER_59_184
*1495 FILLER_59_188
*1496 FILLER_59_194
*1497 FILLER_59_199
*1498 FILLER_59_203
*1499 FILLER_59_205
*1500 FILLER_59_226
*1501 FILLER_59_234
*1502 FILLER_59_245
*1503 FILLER_59_249
*1504 FILLER_59_251
*1505 FILLER_59_258
*1506 FILLER_59_264
*1507 FILLER_59_272
*1508 FILLER_59_277
*1509 FILLER_59_285
*1510 FILLER_59_287
*1511 FILLER_59_308
*1512 FILLER_59_330
*1513 FILLER_59_362
*1514 FILLER_59_394
*1515 FILLER_59_426
*1516 FILLER_59_458
*1517 FILLER_59_466
*1518 FILLER_59_470
*1519 FILLER_60_1
*1520 FILLER_60_33
*1521 FILLER_60_65
*1522 FILLER_60_97
*1523 FILLER_60_129
*1524 FILLER_60_145
*1525 FILLER_60_153
*1526 FILLER_60_157
*1527 FILLER_60_178
*1528 FILLER_60_186
*1529 FILLER_60_190
*1530 FILLER_60_197
*1531 FILLER_60_202
*1532 FILLER_60_206
*1533 FILLER_60_210
*1534 FILLER_60_212
*1535 FILLER_60_215
*1536 FILLER_60_231
*1537 FILLER_60_255
*1538 FILLER_60_277
*1539 FILLER_60_286
*1540 FILLER_60_309
*1541 FILLER_60_311
*1542 FILLER_60_318
*1543 FILLER_60_350
*1544 FILLER_60_382
*1545 FILLER_60_414
*1546 FILLER_60_446
*1547 FILLER_60_462
*1548 FILLER_60_470
*1549 FILLER_61_1
*1550 FILLER_61_33
*1551 FILLER_61_65
*1552 FILLER_61_97
*1553 FILLER_61_129
*1554 FILLER_61_161
*1555 FILLER_61_193
*1556 FILLER_61_225
*1557 FILLER_61_257
*1558 FILLER_61_289
*1559 FILLER_61_297
*1560 FILLER_61_301
*1561 FILLER_61_310
*1562 FILLER_61_342
*1563 FILLER_61_374
*1564 FILLER_61_406
*1565 FILLER_61_438
*1566 FILLER_61_470
*1567 FILLER_62_1
*1568 FILLER_62_33
*1569 FILLER_62_65
*1570 FILLER_62_97
*1571 FILLER_62_129
*1572 FILLER_62_161
*1573 FILLER_62_193
*1574 FILLER_62_225
*1575 FILLER_62_257
*1576 FILLER_62_289